Caffeine
     RDKit          2D

 14 15  0  0  0  0  0  0  0  0999 V2000
    3.4255   -0.9059    0.0000 C   0  0  0  0  0  0  0  0  0  0  0  0
    2.3660    0.1559    0.0000 N   0  0  0  0  0  0  0  0  0  0  0  0
    2.6023    1.6372    0.0000 C   0  0  0  0  0  0  0  0  0  0  0  0
    1.2665    2.3197    0.0000 N   0  0  0  0  0  0  0  0  0  0  0  0
    0.2047    1.2602    0.0000 C   0  0  0  0  0  0  0  0  0  0  0  0
    0.8842   -0.0771    0.0000 C   0  0  0  0  0  0  0  0  0  0  0  0
    0.0659   -1.3342    0.0000 C   0  0  0  0  0  0  0  0  0  0  0  0
    0.7454   -2.6715    0.0000 O   0  0  0  0  0  0  0  0  0  0  0  0
   -1.4320   -1.2541    0.0000 N   0  0  0  0  0  0  0  0  0  0  0  0
   -2.2503   -2.5112    0.0000 C   0  0  0  0  0  0  0  0  0  0  0  0
   -2.1115    0.0832    0.0000 C   0  0  0  0  0  0  0  0  0  0  0  0
   -3.6094    0.1633    0.0000 O   0  0  0  0  0  0  0  0  0  0  0  0
   -1.2932    1.3403    0.0000 N   0  0  0  0  0  0  0  0  0  0  0  0
   -1.9727    2.6775    0.0000 C   0  0  0  0  0  0  0  0  0  0  0  0
  1  2  1  0
  2  3  1  0
  3  4  2  0
  4  5  1  0
  5  6  2  0
  6  7  1  0
  7  8  2  0
  7  9  1  0
  9 10  1  0
  9 11  1  0
 11 12  2  0
 11 13  1  0
 13 14  1  0
  6  2  1  0
 13  5  1  0
M  END
>  <DTXSID>  (1) 
CHEM-0001

>  <PREFERRED_NAME>  (1) 
Caffeine

>  <CAS_NO>  (1) 
58-08-2

>  <MOL_FORMULA>  (1) 
C8H10N4O2

>  <MOL_WEIGHT>  (1) 
194.19

>  <MONOISOTOPIC_MASS>  (1) 
194.0804

>  <MS_READY_SMILES>  (1) 
Cn1c(=O)c2c(ncn2C)n(C)c1=O

>  <SYNONYMS>  (1) 
Caffeine; Example synonym

$$$$
Vanillin
     RDKit          2D

 11 11  0  0  0  0  0  0  0  0999 V2000
    2.9063   -0.9402    0.0000 C   0  0  0  0  0  0  0  0  0  0  0  0
    2.2410    0.4042    0.0000 O   0  0  0  0  0  0  0  0  0  0  0  0
    0.7441    0.5003    0.0000 C   0  0  0  0  0  0  0  0  0  0  0  0
   -0.0876   -0.7480    0.0000 C   0  0  0  0  0  0  0  0  0  0  0  0
   -1.5845   -0.6519    0.0000 C   0  0  0  0  0  0  0  0  0  0  0  0
   -2.4162   -1.9002    0.0000 C   0  0  0  0  0  0  0  0  0  0  0  0
   -3.9131   -1.8041    0.0000 O   0  0  0  0  0  0  0  0  0  0  0  0
   -2.2497    0.6925    0.0000 C   0  0  0  0  0  0  0  0  0  0  0  0
   -1.4180    1.9408    0.0000 C   0  0  0  0  0  0  0  0  0  0  0  0
    0.0789    1.8447    0.0000 C   0  0  0  0  0  0  0  0  0  0  0  0
    0.9106    3.0931    0.0000 O   0  0  0  0  0  0  0  0  0  0  0  0
  1  2  1  0
  2  3  1  0
  3  4  2  0
  4  5  1  0
  5  6  1  0
  6  7  2  0
  5  8  2  0
  8  9  1  0
  9 10  2  0
 10 11  1  0
 10  3  1  0
M  END
>  <DTXSID>  (2) 
CHEM-0002

>  <PREFERRED_NAME>  (2) 
Vanillin

>  <CAS_NO>  (2) 
121-33-5

>  <MOL_FORMULA>  (2) 
C8H8O3

>  <MOL_WEIGHT>  (2) 
152.15

>  <MONOISOTOPIC_MASS>  (2) 
152.0473

>  <MS_READY_SMILES>  (2) 
COc1cc(C=O)ccc1O

>  <SYNONYMS>  (2) 
Vanillin; Example synonym

$$$$
Citric acid
     RDKit          2D

 13 12  0  0  0  0  0  0  0  0999 V2000
   -3.9000    0.3855    0.0000 O   0  0  0  0  0  0  0  0  0  0  0  0
   -2.6860   -0.4954    0.0000 C   0  0  0  0  0  0  0  0  0  0  0  0
   -2.8419   -1.9873    0.0000 O   0  0  0  0  0  0  0  0  0  0  0  0
   -1.3160    0.1155    0.0000 C   0  0  0  0  0  0  0  0  0  0  0  0
    0.0539    0.7264    0.0000 C   0  0  0  0  0  0  0  0  0  0  0  0
   -0.5570    2.0964    0.0000 O   0  0  0  0  0  0  0  0  0  0  0  0
    0.6649   -0.6435    0.0000 C   0  0  0  0  0  0  0  0  0  0  0  0
    1.2758   -2.0135    0.0000 C   0  0  0  0  0  0  0  0  0  0  0  0
    0.3948   -3.2275    0.0000 O   0  0  0  0  0  0  0  0  0  0  0  0
    2.7677   -2.1694    0.0000 O   0  0  0  0  0  0  0  0  0  0  0  0
    1.4239    1.3373    0.0000 C   0  0  0  0  0  0  0  0  0  0  0  0
    2.7363    0.6109    0.0000 O   0  0  0  0  0  0  0  0  0  0  0  0
    1.5798    2.8292    0.0000 O   0  0  0  0  0  0  0  0  0  0  0  0
  1  2  1  0
  2  3  2  0
  2  4  1  0
  4  5  1  0
  5  6  1  0
  5  7  1  0
  7  8  1  0
  8  9  2  0
  8 10  1  0
  5 11  1  0
 11 12  2  0
 11 13  1  0
M  END
>  <DTXSID>  (3) 
CHEM-0003

>  <PREFERRED_NAME>  (3) 
Citric acid

>  <CAS_NO>  (3) 
77-92-9

>  <MOL_FORMULA>  (3) 
C6H8O7

>  <MOL_WEIGHT>  (3) 
192.12

>  <MONOISOTOPIC_MASS>  (3) 
192.0270

>  <MS_READY_SMILES>  (3) 
O=C(O)CC(O)(CC(=O)O)C(=O)O

>  <SYNONYMS>  (3) 
Citric acid; Example synonym

$$$$
